resources/powernetworkdata/ieee5matpower.txt
 08/20/93 UW ARCHIVE           100.0  1961 W IEEE 30 Bus Test Case
BUS DATA FOLLOWS                            9 ITEMS
   1 Bus 1    132  1  1  3   230    0.0     0         0.0      210   -16.1   132.0  1.060     0.0     0.0   0.0    0.0        0
   2 Bus 2    132  1  1  2   230  -5.48     300      12.7        0    50.0   132.0  1.045    50.0   -40.0   0.0    0.0        0
   3 Bus 3    132  1  1  0   230  -7.96     300       1.2      520     0.0   132.0  0.0       0.0     0.0   0.0    0.0        0
   4 Bus 4    132  1  1  0   230  -9.62     400       1.6      200     0.0   132.0  0.0       0.0     0.0   0.0    0.0        0
   5 Bus 5    132  1  1  2   230 -14.37     0        19.0      600    37.0   132.0  1.010    40.0   -40.0   0.0    0.0        0
-999
BRANCH DATA FOLLOWS                         9 ITEMS
   1    2  1  1 1 0  0.00281   0.0281      0.0528   400     0     0    0 0  0.0       0.0 0.0    0.0     0.0    0.0   0.0
   1    4  1  1 1 0  0.00304   0.0304      0.0408   999     0     0    0 0  0.0       0.0 0.0    0.0     0.0    0.0   0.0
   1    5  1  1 1 0  0.00064   0.0064      0.0368   999     0     0    0 0  0.0       0.0 0.0    0.0     0.0    0.0   0.0
   2    3  1  1 1 0  0.00108   0.0108      0.0084   999     0     0    0 0  0.0       0.0 0.0    0.0     0.0    0.0   0.0
   3    4  1  1 1 0  0.00297   0.0297      0.0418   999     0     0    0 0  0.0       0.0 0.0    0.0     0.0    0.0   0.0
   4    5  1  1 1 0  0.00297   0.0297      0.0374   240     0     0    0 0  0.0       0.0 0.0    0.0     0.0    0.0   0.0
-999
LOSS ZONES FOLLOWS                     1 ITEMS
  1 IEEE 30 BUS
-999
INTERCHANGE DATA FOLLOWS                 1 ITEMS
-9
 1    2 Claytor  132    0.0  999.99  IEEE30  IEEE 30 Bus Test Case
TIE LINES FOLLOWS                     0 ITEMS
-999
END OF DATA